# generated using pymatgen
data_SiO2
_symmetry_space_group_name_H-M   'P 1'
_cell_length_a   4.84142187
_cell_length_b   8.68775542
_cell_length_c   10.43821243
_cell_angle_alpha   90.00000000
_cell_angle_beta   90.00000000
_cell_angle_gamma   90.00000000
_symmetry_Int_Tables_number   1
_chemical_formula_structural   SiO2
_chemical_formula_sum   'Si12 O24'
_cell_volume   439.04258298
_cell_formula_units_Z   12
loop_
 _symmetry_equiv_pos_site_id
 _symmetry_equiv_pos_as_xyz
  1  'x, y, z'
loop_
 _atom_site_type_symbol
 _atom_site_label
 _atom_site_symmetry_multiplicity
 _atom_site_fract_x
 _atom_site_fract_y
 _atom_site_fract_z
 _atom_site_occupancy
  Si  Si0  1  0.31056300  0.28673598  0.41314789  1
  Si  Si1  1  0.18943257  0.78672706  0.08140090  1
  Si  Si2  1  0.68943700  0.78673598  0.91314789  1
  Si  Si3  1  0.50000000  0.00000000  0.28037986  1
  Si  Si4  1  0.81056743  0.21327294  0.08140090  1
  Si  Si5  1  0.31056300  0.21326402  0.91314789  1
  Si  Si6  1  0.18943257  0.71327294  0.58140090  1
  Si  Si7  1  -0.00000000  0.50000000  0.21414434  1
  Si  Si8  1  -0.00000000  -0.00000000  0.71414434  1
  Si  Si9  1  0.81056743  0.28672706  0.58140090  1
  Si  Si10  1  0.68943700  0.71326402  0.41314789  1
  Si  Si11  1  0.50000000  0.50000000  0.78037986  1
  O  O12  1  0.69762227  0.89123352  0.36737099  1
  O  O13  1  0.19762393  0.89126062  0.62713689  1
  O  O14  1  0.20561775  0.39461616  0.29838094  1
  O  O15  1  0.19762393  0.60873938  0.12713689  1
  O  O16  1  0.62677850  0.17923423  0.95479772  1
  O  O17  1  0.30237773  0.39123352  0.86737099  1
  O  O18  1  0.80237607  0.10873938  0.62713689  1
  O  O19  1  0.70564282  0.39455264  0.69622148  1
  O  O20  1  0.29435718  0.60544736  0.69622148  1
  O  O21  1  0.79438225  0.60538384  0.29838094  1
  O  O22  1  0.80237607  0.39126062  0.12713689  1
  O  O23  1  0.29435718  0.89455264  0.19622148  1
  O  O24  1  0.12681268  0.32071633  0.53978508  1
  O  O25  1  0.79438225  0.89461616  0.79838094  1
  O  O26  1  0.20561775  0.10538384  0.79838094  1
  O  O27  1  0.12681268  0.17928367  0.03978508  1
  O  O28  1  0.87318732  0.82071633  0.03978508  1
  O  O29  1  0.69762227  0.60876648  0.86737099  1
  O  O30  1  0.70564282  0.10544736  0.19622148  1
  O  O31  1  0.87318732  0.67928367  0.53978508  1
  O  O32  1  0.37322150  0.67923423  0.45479772  1
  O  O33  1  0.62677850  0.32076577  0.45479772  1
  O  O34  1  0.37322150  0.82076577  0.95479772  1
  O  O35  1  0.30237773  0.10876648  0.36737099  1
