# generated using pymatgen
data_CaGeAu
_symmetry_space_group_name_H-M   'P 1'
_cell_length_a   4.51385887
_cell_length_b   7.75468993
_cell_length_c   21.65923271
_cell_angle_alpha   90.00000000
_cell_angle_beta   90.00000000
_cell_angle_gamma   90.00000000
_symmetry_Int_Tables_number   1
_chemical_formula_structural   CaGeAu
_chemical_formula_sum   'Ca12 Ge12 Au12'
_cell_volume   758.15059663
_cell_formula_units_Z   12
loop_
 _symmetry_equiv_pos_site_id
 _symmetry_equiv_pos_as_xyz
  1  'x, y, z'
loop_
 _atom_site_type_symbol
 _atom_site_label
 _atom_site_symmetry_multiplicity
 _atom_site_fract_x
 _atom_site_fract_y
 _atom_site_fract_z
 _atom_site_occupancy
  Ca  Ca0  1  0.25000000  0.71621853  0.00078980  1
  Ca  Ca1  1  0.75000000  0.28378147  0.99921020  1
  Ca  Ca2  1  0.75000000  0.21621853  0.49921020  1
  Ca  Ca3  1  0.25000000  0.78378147  0.50078980  1
  Ca  Ca4  1  0.25000000  0.79181116  0.16619558  1
  Ca  Ca5  1  0.75000000  0.20818884  0.83380442  1
  Ca  Ca6  1  0.75000000  0.29181116  0.33380442  1
  Ca  Ca7  1  0.25000000  0.70818884  0.66619558  1
  Ca  Ca8  1  0.25000000  0.70717783  0.33284874  1
  Ca  Ca9  1  0.75000000  0.29282217  0.66715126  1
  Ca  Ca10  1  0.75000000  0.20717783  0.16715126  1
  Ca  Ca11  1  0.25000000  0.79282217  0.83284874  1
  Ge  Ge12  1  0.75000000  0.58591588  0.10407734  1
  Ge  Ge13  1  0.75000000  0.91408412  0.60407734  1
  Ge  Ge14  1  0.25000000  0.08591588  0.39592266  1
  Ge  Ge15  1  0.25000000  0.41696510  0.77178134  1
  Ge  Ge16  1  0.75000000  0.58303490  0.22821866  1
  Ge  Ge17  1  0.75000000  0.91696510  0.72821866  1
  Ge  Ge18  1  0.25000000  0.41408412  0.89592266  1
  Ge  Ge19  1  0.25000000  0.08303490  0.27178134  1
  Ge  Ge20  1  0.25000000  0.40913797  0.56866332  1
  Ge  Ge21  1  0.75000000  0.59086203  0.43133668  1
  Ge  Ge22  1  0.75000000  0.90913797  0.93133668  1
  Ge  Ge23  1  0.25000000  0.09086203  0.06866332  1
  Au  Au24  1  0.25000000  0.08347835  0.93218405  1
  Au  Au25  1  0.75000000  0.91652165  0.06781595  1
  Au  Au26  1  0.75000000  0.58347835  0.56781595  1
  Au  Au27  1  0.25000000  0.41652165  0.43218405  1
  Au  Au28  1  0.25000000  0.08734892  0.73843070  1
  Au  Au29  1  0.75000000  0.58734892  0.76156930  1
  Au  Au30  1  0.25000000  0.41265108  0.23843070  1
  Au  Au31  1  0.25000000  0.08352718  0.59440468  1
  Au  Au32  1  0.75000000  0.91647282  0.40559532  1
  Au  Au33  1  0.75000000  0.58352718  0.90559532  1
  Au  Au34  1  0.25000000  0.41647282  0.09440468  1
  Au  Au35  1  0.75000000  0.91265108  0.26156930  1
