# generated using pymatgen
data_Sb2(AuF6)3
_symmetry_space_group_name_H-M   'P 1'
_cell_length_a   8.38552841
_cell_length_b   9.04379051
_cell_length_c   10.07947296
_cell_angle_alpha   59.99703329
_cell_angle_beta   90.00000000
_cell_angle_gamma   90.00000000
_symmetry_Int_Tables_number   1
_chemical_formula_structural   Sb2(AuF6)3
_chemical_formula_sum   'Sb4 Au6 F36'
_cell_volume   661.96709274
_cell_formula_units_Z   2
loop_
 _symmetry_equiv_pos_site_id
 _symmetry_equiv_pos_as_xyz
  1  'x, y, z'
loop_
 _atom_site_type_symbol
 _atom_site_label
 _atom_site_symmetry_multiplicity
 _atom_site_fract_x
 _atom_site_fract_y
 _atom_site_fract_z
 _atom_site_occupancy
  Sb  Sb0  1  0.87416448  0.13757894  0.71879830  1
  Sb  Sb1  1  0.37416448  0.86242106  0.78120170  1
  Sb  Sb2  1  0.12583552  0.86242106  0.28120170  1
  Sb  Sb3  1  0.62583552  0.13757894  0.21879830  1
  Au  Au4  1  0.50000000  0.50000000  0.50000000  1
  Au  Au5  1  -0.00000000  0.50000000  0.00000000  1
  Au  Au6  1  0.16886396  0.33127271  0.36882935  1
  Au  Au7  1  0.66886396  0.66872729  0.13117065  1
  Au  Au8  1  0.83113604  0.66872729  0.63117065  1
  Au  Au9  1  0.33113604  0.33127271  0.86882935  1
  F  F10  1  0.05567824  0.05890462  0.84268292  1
  F  F11  1  0.55567824  0.94109538  0.65731708  1
  F  F12  1  0.94432176  0.94109538  0.15731708  1
  F  F13  1  0.44432176  0.05890462  0.34268292  1
  F  F14  1  0.89675151  0.97008243  0.66220523  1
  F  F15  1  0.39675151  0.02991757  0.83779477  1
  F  F16  1  0.20678154  0.39864431  0.69068102  1
  F  F17  1  0.70678154  0.60135569  0.80931898  1
  F  F18  1  0.79321846  0.60135569  0.30931898  1
  F  F19  1  0.29321846  0.39864431  0.19068102  1
  F  F20  1  0.51998837  0.35914326  0.74296200  1
  F  F21  1  0.01998837  0.64085674  0.75703800  1
  F  F22  1  0.48001163  0.64085674  0.25703800  1
  F  F23  1  0.98001163  0.35914326  0.24296200  1
  F  F24  1  0.13780132  0.30888581  0.98876335  1
  F  F25  1  0.63780132  0.69111419  0.51123665  1
  F  F26  1  0.86219868  0.69111419  0.01123665  1
  F  F27  1  0.36219868  0.30888581  0.48876335  1
  F  F28  1  0.10324849  0.02991757  0.33779477  1
  F  F29  1  0.60324849  0.97008243  0.16220523  1
  F  F30  1  0.71430713  0.24790717  0.56895943  1
  F  F31  1  0.21430713  0.75209283  0.93104057  1
  F  F32  1  0.47456398  0.28536736  0.04503737  1
  F  F33  1  0.97456398  0.71463264  0.45496263  1
  F  F34  1  0.52543602  0.71463264  0.95496263  1
  F  F35  1  0.02543602  0.28536736  0.54503737  1
  F  F36  1  0.77015063  0.01095973  0.37802707  1
  F  F37  1  0.27015063  0.98904027  0.12197293  1
  F  F38  1  0.22984937  0.98904027  0.62197293  1
  F  F39  1  0.72984937  0.01095973  0.87802707  1
  F  F40  1  0.63307987  0.32782482  0.24888841  1
  F  F41  1  0.13307987  0.67217518  0.25111159  1
  F  F42  1  0.36692013  0.67217518  0.75111159  1
  F  F43  1  0.86692013  0.32782482  0.74888841  1
  F  F44  1  0.78569287  0.24790717  0.06895943  1
  F  F45  1  0.28569287  0.75209283  0.43104057  1
