# generated using pymatgen
data_SrSnAu
_symmetry_space_group_name_H-M   'P 1'
_cell_length_a   4.85103975
_cell_length_b   8.31593231
_cell_length_c   23.68418931
_cell_angle_alpha   90.00000000
_cell_angle_beta   90.00000000
_cell_angle_gamma   90.00000000
_symmetry_Int_Tables_number   1
_chemical_formula_structural   SrSnAu
_chemical_formula_sum   'Sr12 Sn12 Au12'
_cell_volume   955.44194345
_cell_formula_units_Z   12
loop_
 _symmetry_equiv_pos_site_id
 _symmetry_equiv_pos_as_xyz
  1  'x, y, z'
loop_
 _atom_site_type_symbol
 _atom_site_label
 _atom_site_symmetry_multiplicity
 _atom_site_fract_x
 _atom_site_fract_y
 _atom_site_fract_z
 _atom_site_occupancy
  Sr  Sr0  1  0.75000000  0.21235614  0.49761289  1
  Sr  Sr1  1  0.25000000  0.79267992  0.16596470  1
  Sr  Sr2  1  0.25000000  0.78764386  0.50238711  1
  Sr  Sr3  1  0.25000000  0.79380565  0.83349843  1
  Sr  Sr4  1  0.25000000  0.70619435  0.33349843  1
  Sr  Sr5  1  0.75000000  0.20732008  0.83403530  1
  Sr  Sr6  1  0.75000000  0.28764386  0.99761289  1
  Sr  Sr7  1  0.75000000  0.29380565  0.66650157  1
  Sr  Sr8  1  0.75000000  0.29267992  0.33403530  1
  Sr  Sr9  1  0.25000000  0.70732008  0.66596470  1
  Sr  Sr10  1  0.25000000  0.71235614  0.00238711  1
  Sr  Sr11  1  0.75000000  0.20619435  0.16650157  1
  Sn  Sn12  1  0.25000000  0.41205292  0.56570440  1
  Sn  Sn13  1  0.25000000  0.08331268  0.39790048  1
  Sn  Sn14  1  0.25000000  0.08794708  0.06570440  1
  Sn  Sn15  1  0.25000000  0.41668732  0.89790048  1
  Sn  Sn16  1  0.75000000  0.58331268  0.10209952  1
  Sn  Sn17  1  0.25000000  0.41779922  0.76920164  1
  Sn  Sn18  1  0.75000000  0.58220078  0.23079836  1
  Sn  Sn19  1  0.75000000  0.58794708  0.43429560  1
  Sn  Sn20  1  0.75000000  0.91205292  0.93429560  1
  Sn  Sn21  1  0.25000000  0.08220078  0.26920164  1
  Sn  Sn22  1  0.75000000  0.91668732  0.60209952  1
  Sn  Sn23  1  0.75000000  0.91779922  0.73079836  1
  Au  Au24  1  0.25000000  0.08624043  0.59318163  1
  Au  Au25  1  0.25000000  0.08652765  0.73999040  1
  Au  Au26  1  0.75000000  0.58624043  0.90681837  1
  Au  Au27  1  0.75000000  0.91375957  0.40681837  1
  Au  Au28  1  0.75000000  0.58464239  0.56668991  1
  Au  Au29  1  0.75000000  0.58652765  0.76000960  1
  Au  Au30  1  0.25000000  0.41535761  0.43331009  1
  Au  Au31  1  0.25000000  0.41347235  0.23999040  1
  Au  Au32  1  0.75000000  0.91535761  0.06668991  1
  Au  Au33  1  0.25000000  0.41375957  0.09318163  1
  Au  Au34  1  0.25000000  0.08464239  0.93331009  1
  Au  Au35  1  0.75000000  0.91347235  0.26000960  1
